# generated using pymatgen
data_C
_symmetry_space_group_name_H-M   'P 1'
_cell_length_a   16.17055434
_cell_length_b   12.81120091
_cell_length_c   500.00000000
_cell_angle_alpha   90.00003300
_cell_angle_beta   90.00004300
_cell_angle_gamma   97.58761600
_symmetry_Int_Tables_number   1
_chemical_formula_structural   C
_chemical_formula_sum   C78
_cell_volume   102675.15597053
_cell_formula_units_Z   78
loop_
 _symmetry_equiv_pos_site_id
 _symmetry_equiv_pos_as_xyz
  1  'x, y, z'
loop_
 _atom_site_type_symbol
 _atom_site_label
 _atom_site_symmetry_multiplicity
 _atom_site_fract_x
 _atom_site_fract_y
 _atom_site_fract_z
 _atom_site_occupancy
  C  C0  1  0.00000607  -0.11020688  0.00000000  1
  C  C1  1  0.00000608  -0.44353983  0.00000000  1
  C  C2  1  0.07692928  -0.26405286  0.00000000  1
  C  C3  1  0.15385245  -0.08456553  0.00000000  1
  C  C4  1  0.00000588  0.22312686  0.00000000  1
  C  C5  1  0.07692927  0.40261398  0.00000000  1
  C  C6  1  0.15385240  -0.41789895  0.00000000  1
  C  C7  1  0.23077541  -0.23841179  0.00000000  1
  C  C8  1  0.30769851  -0.05892472  0.00000000  1
  C  C9  1  0.07692917  0.06928043  0.00000000  1
  C  C10  1  0.15385230  0.24876776  0.00000000  1
  C  C11  1  0.23077548  0.42825503  0.00000000  1
  C  C12  1  0.30769846  -0.39225794  0.00000000  1
  C  C13  1  0.38462146  -0.21277087  0.00000000  1
  C  C14  1  0.46154442  -0.03328369  0.00000000  1
  C  C15  1  0.23077552  0.09492156  0.00000000  1
  C  C16  1  0.30769853  0.27440895  0.00000000  1
  C  C17  1  0.38462148  0.45389609  0.00000000  1
  C  C18  1  0.46154441  -0.36661696  0.00000000  1
  C  C19  1  -0.46153269  -0.18712991  0.00000000  1
  C  C20  1  -0.38460969  -0.00764269  0.00000000  1
  C  C21  1  0.38462149  0.12056254  0.00000000  1
  C  C22  1  0.46154447  0.30004983  0.00000000  1
  C  C23  1  -0.46153261  0.47953703  0.00000000  1
  C  C24  1  -0.38460964  -0.34097602  0.00000000  1
  C  C25  1  -0.30768660  -0.16148886  0.00000000  1
  C  C26  1  -0.23076357  0.01799850  0.00000000  1
  C  C27  1  -0.46153263  0.14620355  0.00000000  1
  C  C28  1  -0.38460964  0.32569090  0.00000000  1
  C  C29  1  -0.30768662  -0.49482206  0.00000000  1
  C  C30  1  -0.23076360  -0.31533503  0.00000000  1
  C  C31  1  -0.15384038  -0.13584789  0.00000000  1
  C  C32  1  -0.07691712  0.04363942  0.00000000  1
  C  C33  1  -0.30768671  0.17184463  0.00000000  1
  C  C34  1  -0.23076346  0.35133178  0.00000000  1
  C  C35  1  -0.15384043  -0.46918100  0.00000000  1
  C  C36  1  -0.07691725  -0.28969400  0.00000000  1
  C  C37  1  -0.15384042  0.19748561  0.00000000  1
  C  C38  1  -0.07691711  0.37697311  0.00000000  1
  C  C39  1  0.00000594  -0.22130573  0.00000000  1
  C  C40  1  0.07692924  -0.04181824  0.00000000  1
  C  C41  1  0.00000609  0.44536137  0.00000000  1
  C  C42  1  0.07692925  -0.37515162  0.00000000  1
  C  C43  1  0.15385230  -0.19566442  0.00000000  1
  C  C44  1  0.23077552  -0.01617725  0.00000000  1
  C  C45  1  0.00000597  0.11202795  0.00000000  1
  C  C46  1  0.07692920  0.29151525  0.00000000  1
  C  C47  1  0.15385242  0.47100240  0.00000000  1
  C  C48  1  0.23077545  -0.34951057  0.00000000  1
  C  C49  1  0.30769847  -0.17002353  0.00000000  1
  C  C50  1  0.38462148  0.00946380  0.00000000  1
  C  C51  1  0.15385241  0.13766887  0.00000000  1
  C  C52  1  0.23077543  0.31715622  0.00000000  1
  C  C53  1  0.30769847  0.49664340  0.00000000  1
  C  C54  1  0.38462146  -0.32386966  0.00000000  1
  C  C55  1  0.46154437  -0.14438246  0.00000000  1
  C  C56  1  -0.46153265  0.03510483  0.00000000  1
  C  C57  1  0.30769853  0.16331007  0.00000000  1
  C  C58  1  0.38462153  0.34279726  0.00000000  1
  C  C59  1  0.46154443  -0.47771567  0.00000000  1
  C  C60  1  -0.46153264  -0.29822872  0.00000000  1
  C  C61  1  -0.38460971  -0.11874157  0.00000000  1
  C  C62  1  -0.30768669  0.06074581  0.00000000  1
  C  C63  1  0.46154443  0.18895106  0.00000000  1
  C  C64  1  -0.46153263  0.36843824  0.00000000  1
  C  C65  1  -0.38460964  -0.45207469  0.00000000  1
  C  C66  1  -0.30768665  -0.27258767  0.00000000  1
  C  C67  1  -0.23076349  -0.09310039  0.00000000  1
  C  C68  1  -0.15384032  0.08638695  0.00000000  1
  C  C69  1  -0.38460969  0.21459210  0.00000000  1
  C  C70  1  -0.30768658  0.39407916  0.00000000  1
  C  C71  1  -0.23076358  -0.42643367  0.00000000  1
  C  C72  1  -0.15384044  -0.24694662  0.00000000  1
  C  C73  1  -0.07691706  -0.06745949  0.00000000  1
  C  C74  1  -0.23076363  0.24023289  0.00000000  1
  C  C75  1  -0.15384045  0.41972024  0.00000000  1
  C  C76  1  -0.07691724  -0.40079279  0.00000000  1
  C  C77  1  -0.07691724  0.26587427  0.00000000  1
